
**** 02/21/19 20:17:50 ******* PSpice Lite (March 2016) ******* ID# 10813 ****

 ** Profile: "SCHEMATIC1-bias"  [ C:\Users\Avery Peiffer\Desktop\homework5-pspicefiles\schematic1\bias.sim ] 


 ****     CIRCUIT DESCRIPTION


******************************************************************************




** Creating circuit file "bias.cir" 
** WARNING: THIS AUTOMATICALLY GENERATED FILE MAY BE OVERWRITTEN BY SUBSEQUENT SIMULATIONS

*Libraries: 
* Profile Libraries :
* Local Libraries :
* From [PSPICE NETLIST] section of C:\Users\Avery Peiffer\AppData\Roaming\SPB_Data\cdssetup\OrCAD_PSpice\17.2.0\PSpice.ini file:
.lib "nomd.lib" 

*Analysis directives: 
.DC LIN V_VDS1 0 5 .1 
.OPTIONS ADVCONV
.PROBE64 V(alias(*)) I(alias(*)) W(alias(*)) D(alias(*)) NOISE(alias(*)) 
.INC "..\SCHEMATIC1.net" 



**** INCLUDING SCHEMATIC1.net ****
* source HOMEWORK5
V_VDS1         N16786 0 5Vdc
V_VGS1         N16812 0 2.5
X_M2         N16786 N16812 0 2N7000/FAI
X_M3         N17055 N17055 N17033 2N7000/FAI
X_M4         N17076 N17076 N17055 2N7000/FAI
V_V1         N17033 0 5Vdc
I_I1         N17076 0 DC 2mAdc  
X_M5         N16786 N17453 0 2N7000/FAI
V_VGS2         N17453 0 3
V_VGS3         N17718 0 3.5
X_M6         N16786 N17718 0 2N7000/FAI

**** RESUMING bias.cir ****
.END

**** 02/21/19 20:17:50 ******* PSpice Lite (March 2016) ******* ID# 10813 ****

 ** Profile: "SCHEMATIC1-bias"  [ C:\Users\Avery Peiffer\Desktop\homework5-pspicefiles\schematic1\bias.sim ] 


 ****     Diode MODEL PARAMETERS


******************************************************************************




               X_M2.DDS        X_M2.DBODY      X_M2.DGD        X_M3.DDS        
          IS   10.000000E-15  140.000000E-15   10.000000E-15   10.000000E-15 
          BV   60.0864                                         60.0864       
          RS                     .04                                         
          TT                  100.000000E-09                                 
         CJO   23.000000E-12                   85.000000E-12   23.000000E-12 
          VJ     .8                              .12             .8          
           M     .36                             .53             .36         


               X_M3.DBODY      X_M3.DGD        X_M4.DDS        X_M4.DBODY      
          IS  140.000000E-15   10.000000E-15   10.000000E-15  140.000000E-15 
          BV                                   60.0864                       
          RS     .04                                             .04         
          TT  100.000000E-09                                  100.000000E-09 
         CJO                   85.000000E-12   23.000000E-12                 
          VJ                     .12             .8                          
           M                     .53             .36                         


               X_M4.DGD        X_M5.DDS        X_M5.DBODY      X_M5.DGD        
          IS   10.000000E-15   10.000000E-15  140.000000E-15   10.000000E-15 
          BV                   60.0864                                       
          RS                                     .04                         
          TT                                  100.000000E-09                 
         CJO   85.000000E-12   23.000000E-12                   85.000000E-12 
          VJ     .12             .8                              .12         
           M     .53             .36                             .53         


               X_M6.DDS        X_M6.DBODY      X_M6.DGD        
          IS   10.000000E-15  140.000000E-15   10.000000E-15 
          BV   60.0864                                       
          RS                     .04                         
          TT                  100.000000E-09                 
         CJO   23.000000E-12                   85.000000E-12 
          VJ     .8                              .12         
           M     .36                             .53         


**** 02/21/19 20:17:50 ******* PSpice Lite (March 2016) ******* ID# 10813 ****

 ** Profile: "SCHEMATIC1-bias"  [ C:\Users\Avery Peiffer\Desktop\homework5-pspicefiles\schematic1\bias.sim ] 


 ****     MOSFET MODEL PARAMETERS


******************************************************************************




               X_M2.DMOS       X_M2.INTER      X_M3.DMOS       X_M3.INTER      
               NMOS            NMOS            NMOS            NMOS            
       LEVEL    3               1               3               1            
           L  100.000000E-06  100.000000E-06  100.000000E-06  100.000000E-06 
           W  100.000000E-06  100.000000E-06  100.000000E-06  100.000000E-06 
         VTO    2.09328         0               2.09328         0            
          KP     .35           10                .35           10            
       GAMMA    0               0               0               0            
         PHI     .6              .6              .6              .6          
      LAMBDA    0               0               0               0            
          IS   10.000000E-15   10.000000E-15   10.000000E-15   10.000000E-15 
          JS    0               0               0               0            
          PB     .8              .8              .8              .8          
        PBSW     .8              .8              .8              .8          
          CJ    0               0               0               0            
        CJSW    0               0               0               0            
        CGSO    0               0               0               0            
        CGDO    0               0               0               0            
        CGBO    0               0               0               0            
         TOX  100.000000E-09    0             100.000000E-09    0            
          XJ    0               0               0               0            
       UCRIT   10.000000E+03   10.000000E+03   10.000000E+03   10.000000E+03 
        VMAX  220.000000E+03                  220.000000E+03                 
       THETA     .086                            .086                        
      DIOMOD    1               1               1               1            
         VFB    0               0               0               0            
        LETA    0               0               0               0            
        WETA    0               0               0               0            
          U0    0               0               0               0            
        TEMP    0               0               0               0            
         VDD    5               5               5               5            
       XPART    0               0               0               0            


               X_M4.DMOS       X_M4.INTER      X_M5.DMOS       X_M5.INTER      
               NMOS            NMOS            NMOS            NMOS            
       LEVEL    3               1               3               1            
           L  100.000000E-06  100.000000E-06  100.000000E-06  100.000000E-06 
           W  100.000000E-06  100.000000E-06  100.000000E-06  100.000000E-06 
         VTO    2.09328         0               2.09328         0            
          KP     .35           10                .35           10            
       GAMMA    0               0               0               0            
         PHI     .6              .6              .6              .6          
      LAMBDA    0               0               0               0            
          IS   10.000000E-15   10.000000E-15   10.000000E-15   10.000000E-15 
          JS    0               0               0               0            
          PB     .8              .8              .8              .8          
        PBSW     .8              .8              .8              .8          
          CJ    0               0               0               0            
        CJSW    0               0               0               0            
        CGSO    0               0               0               0            
        CGDO    0               0               0               0            
        CGBO    0               0               0               0            
         TOX  100.000000E-09    0             100.000000E-09    0            
          XJ    0               0               0               0            
       UCRIT   10.000000E+03   10.000000E+03   10.000000E+03   10.000000E+03 
        VMAX  220.000000E+03                  220.000000E+03                 
       THETA     .086                            .086                        
      DIOMOD    1               1               1               1            
         VFB    0               0               0               0            
        LETA    0               0               0               0            
        WETA    0               0               0               0            
          U0    0               0               0               0            
        TEMP    0               0               0               0            
         VDD    5               5               5               5            
       XPART    0               0               0               0            


               X_M6.DMOS       X_M6.INTER      
               NMOS            NMOS            
       LEVEL    3               1            
           L  100.000000E-06  100.000000E-06 
           W  100.000000E-06  100.000000E-06 
         VTO    2.09328         0            
          KP     .35           10            
       GAMMA    0               0            
         PHI     .6              .6          
      LAMBDA    0               0            
          IS   10.000000E-15   10.000000E-15 
          JS    0               0            
          PB     .8              .8          
        PBSW     .8              .8          
          CJ    0               0            
        CJSW    0               0            
        CGSO    0               0            
        CGDO    0               0            
        CGBO    0               0            
         TOX  100.000000E-09    0            
          XJ    0               0            
       UCRIT   10.000000E+03   10.000000E+03 
        VMAX  220.000000E+03                 
       THETA     .086                        
      DIOMOD    1               1            
         VFB    0               0            
        LETA    0               0            
        WETA    0               0            
          U0    0               0            
        TEMP    0               0            
         VDD    5               5            
       XPART    0               0            



          JOB CONCLUDED

**** 02/21/19 20:17:50 ******* PSpice Lite (March 2016) ******* ID# 10813 ****

 ** Profile: "SCHEMATIC1-bias"  [ C:\Users\Avery Peiffer\Desktop\homework5-pspicefiles\schematic1\bias.sim ] 


 ****     JOB STATISTICS SUMMARY


******************************************************************************



  Total job time (using Solver 1)   =         .06
