
**** 01/12/19 21:47:09 ******* PSpice Lite (March 2016) ******* ID# 10813 ****

 ** Profile: "SCHEMATIC1-parametric"  [ C:\Users\Avery Peiffer\Desktop\CoE 0257\0257HW1-PSpiceFiles\SCHEMATIC1\parametric.sim ] 


 ****     CIRCUIT DESCRIPTION


******************************************************************************




** Creating circuit file "parametric.cir" 
** WARNING: THIS AUTOMATICALLY GENERATED FILE MAY BE OVERWRITTEN BY SUBSEQUENT SIMULATIONS

*Libraries: 
* Profile Libraries :
* Local Libraries :
* From [PSPICE NETLIST] section of C:\Users\Avery Peiffer\AppData\Roaming\SPB_Data\cdssetup\OrCAD_PSpice\17.2.0\PSpice.ini file:
.lib "nomd.lib" 

*Analysis directives: 
.DC LIN V_V1 -10 10 1 
.STEP LIN PARAM Rload 50 300 50 
.OPTIONS ADVCONV
.PROBE64 V(alias(*)) I(alias(*)) W(alias(*)) D(alias(*)) NOISE(alias(*)) 
.INC "..\SCHEMATIC1.net" 



**** INCLUDING SCHEMATIC1.net ****
* source 0257HW1
R_R1         N00111 N00118  100 TC=0,0 
R_R2         0 N00118  {Rload} TC=0,0 
V_V1         N00111 0 10Vdc
.PARAM  rload=400

**** RESUMING parametric.cir ****
.END


          JOB CONCLUDED

**** 01/12/19 21:47:09 ******* PSpice Lite (March 2016) ******* ID# 10813 ****

 ** Profile: "SCHEMATIC1-parametric"  [ C:\Users\Avery Peiffer\Desktop\CoE 0257\0257HW1-PSpiceFiles\SCHEMATIC1\parametric.sim ] 


 ****     JOB STATISTICS SUMMARY

 ****     CURRENT STEP                     PARAM RLOAD =  300   


******************************************************************************



  Total job time (using Solver 1)   =         .03
