
**** 04/17/19 21:05:37 ******* PSpice Lite (March 2016) ******* ID# 10813 ****

 ** Profile: "SCHEMATIC1-Dyn_Sim"  [ C:\Users\Avery Peiffer\Desktop\dynamic-pspicefiles\schematic1\dyn_sim.sim ] 


 ****     CIRCUIT DESCRIPTION


******************************************************************************




** Creating circuit file "Dyn_Sim.cir" 
** WARNING: THIS AUTOMATICALLY GENERATED FILE MAY BE OVERWRITTEN BY SUBSEQUENT SIMULATIONS

*Libraries: 
* Profile Libraries :
* Local Libraries :
.LIB "../../../dynamic-pspicefiles/dynamic.lib" 
* From [PSPICE NETLIST] section of C:\Users\Avery Peiffer\AppData\Roaming\SPB_Data\cdssetup\OrCAD_PSpice\17.2.0\PSpice.ini file:
.lib "nomd.lib" 

*Analysis directives: 
.TRAN  0 2.5n 0 
.OPTIONS ADVCONV
.PROBE64 V(alias(*)) I(alias(*)) W(alias(*)) D(alias(*)) NOISE(alias(*)) 
.INC "..\SCHEMATIC1.net" 



**** INCLUDING SCHEMATIC1.net ****
* source DYNAMIC
V_V1         VDD 0 2.5
M_M3         N35677 CMOS_IN VDD VDD CMOSP  
+ L=250n  
+ W=360n         
M_M5         N35677 CMOS_IN 0 0 CMOSN  
+ L=250n  
+ W=360n         
V_V2         CMOS_IN 0  
+PULSE 0 2.5 0 100p 100p .5n 1n
M_M7         CMOS_OUT N35677 0 0 CMOSN  
+ L=250n  
+ W=360n         
M_M6         CMOS_OUT N35677 VDD VDD CMOSP  
+ L=250n  
+ W=360n         
V_V3         N36789 0 2.5Vdc
R_R1         N36849 N36789  12.55k TC=0,0 
V_V4         N36923 0 5Vdc
M_M8         N36849 N36923 0 0 CMOSN  
+ L=250n  
+ W=600n         
M_M9         N37686 N37678 N37634 N37634 CMOSP  
+ L=250n  
+ W=1200n         
M_M10         N37686 N37678 0 0 CMOSN  
+ L=250n  
+ W=360n         
V_V5         N37634 0 2.5Vdc
V_V6         N37678 0  
+PULSE 0 2.5 0 10 pS 10 pS .5ns 1ns
------------------$
ERROR -- Expecting keyword STIMULUS, saw pS.

M_M11         N39275 N37686 N39191 N39191 CMOSP  
+ L=250n  
+ W=1200n         
V_V7         N39191 0 2.5Vdc
M_M12         N39275 N37686 0 0 CMOSN  
+ L=250n  
+ W=360n         

**** RESUMING Dyn_Sim.cir ****
.END
